NOVO24/1726519/Trafos.dss
! ==========================================================
! TRANSFORMADORES DE DISTRIBUICAO — gerados de UNTRMT/EQTRMT
! Secundario 1F/2F: 3 enrolamentos com derivacao central
! Neutro no no 4, aterrado em _ATERRAMENTO.dss
! Kv de BT conforme TEN_LIN_SE da BDGD
! ==========================================================
New Transformer.1273244094_1898566378 phases=3 windings=2 Xhl=4.900
~ wdg=1 bus=node_1571930428.1.2.3 conn=delta Kv=13.8 Kva=300.0 %R=0.495
~ wdg=2 bus=node_1571930439.1.2.3.4 conn=wye Kv=0.2200 Kva=300.0 %R=0.495
New Transformer.1331638335_1331638334 phases=3 windings=2 Xhl=4.900
~ wdg=1 bus=node_429174439.1.2.3 conn=delta Kv=13.8 Kva=300.0 %R=0.495
~ wdg=2 bus=node_412382852.1.2.3.4 conn=wye Kv=0.2200 Kva=300.0 %R=0.495
New Transformer.2003936867_2003936866 phases=3 windings=2 Xhl=4.900
~ wdg=1 bus=node_2321825928.1.2.3 conn=delta Kv=13.8 Kva=300.0 %R=0.495
~ wdg=2 bus=node_2321825951.1.2.3.4 conn=wye Kv=0.2200 Kva=300.0 %R=0.495
New Transformer.2143664154_2143664153 phases=3 windings=2 Xhl=4.900
~ wdg=1 bus=node_2454017922.1.2.3 conn=delta Kv=13.8 Kva=300.0 %R=0.495
~ wdg=2 bus=node_2454017912.1.2.3.4 conn=wye Kv=0.2200 Kva=300.0 %R=0.495
New Transformer.326094091_327078126 phases=3 windings=2 Xhl=4.890
~ wdg=1 bus=node_435069616.1.2.3 conn=delta Kv=13.8 Kva=225.0 %R=0.530
~ wdg=2 bus=node_418500507.1.2.3.4 conn=wye Kv=0.2200 Kva=225.0 %R=0.530
New Transformer.326675596_1105657810 phases=3 windings=2 Xhl=3.840
~ wdg=1 bus=node_430737746.1.2.3 conn=delta Kv=13.8 Kva=150.0 %R=0.565
~ wdg=2 bus=node_410910717.1.2.3.4 conn=wye Kv=0.2200 Kva=150.0 %R=0.565
New Transformer.326093114_2597759948 phases=3 windings=2 Xhl=4.960
~ wdg=1 bus=node_428684665.1.2.3 conn=delta Kv=13.8 Kva=150.0 %R=0.305
~ wdg=2 bus=node_514310515.1.2.3.4 conn=wye Kv=0.2200 Kva=150.0 %R=0.305
New Transformer.326675257_2624870799 phases=3 windings=2 Xhl=3.840
~ wdg=1 bus=node_425292503.1.2.3 conn=delta Kv=13.8 Kva=150.0 %R=0.565
~ wdg=2 bus=node_418500573.1.2.3.4 conn=wye Kv=0.2200 Kva=150.0 %R=0.565
New Transformer.326092345_2556860204 phases=3 windings=2 Xhl=3.840
~ wdg=1 bus=node_437864044.1.2.3 conn=delta Kv=13.8 Kva=150.0 %R=0.565
~ wdg=2 bus=node_417047541.1.2.3.4 conn=wye Kv=0.2200 Kva=150.0 %R=0.565
New Transformer.1609400144_1609400221 phases=3 windings=2 Xhl=3.840
~ wdg=1 bus=node_1895724462.1.2.3 conn=delta Kv=13.8 Kva=150.0 %R=0.565
~ wdg=2 bus=node_1895724473.1.2.3.4 conn=wye Kv=0.2200 Kva=150.0 %R=0.565
New Transformer.326587953_327040544 phases=3 windings=2 Xhl=3.840
~ wdg=1 bus=node_425292948.1.2.3 conn=delta Kv=13.8 Kva=150.0 %R=0.565
~ wdg=2 bus=node_420053494.1.2.3.4 conn=wye Kv=0.2200 Kva=150.0 %R=0.565
New Transformer.326588175_327057818 phases=3 windings=2 Xhl=3.840
~ wdg=1 bus=node_438657452.1.2.3 conn=delta Kv=13.8 Kva=150.0 %R=0.565
~ wdg=2 bus=node_418990061.1.2.3.4 conn=wye Kv=0.2200 Kva=150.0 %R=0.565
New Transformer.326587416_327074772 phases=3 windings=2 Xhl=3.840
~ wdg=1 bus=node_425292898.1.2.3 conn=delta Kv=13.8 Kva=150.0 %R=0.565
~ wdg=2 bus=node_499233626.1.2.3.4 conn=wye Kv=0.2200 Kva=150.0 %R=0.565
New Transformer.2062275300_2062275299 phases=3 windings=2 Xhl=3.840
~ wdg=1 bus=node_2375578419.1.2.3 conn=delta Kv=13.8 Kva=150.0 %R=0.565
~ wdg=2 bus=node_2375578345.1.2.3.4 conn=wye Kv=0.2200 Kva=150.0 %R=0.565
New Transformer.326586347_327098212 phases=3 windings=2 Xhl=3.840
~ wdg=1 bus=node_430573462.1.2.3 conn=delta Kv=13.8 Kva=150.0 %R=0.565
~ wdg=2 bus=node_420913790.1.2.3.4 conn=wye Kv=0.2200 Kva=150.0 %R=0.565
New Transformer.326586171_327095890 phases=3 windings=2 Xhl=3.840
~ wdg=1 bus=node_429003911.1.2.3 conn=delta Kv=13.8 Kva=150.0 %R=0.565
~ wdg=2 bus=node_420532592.1.2.3.4 conn=wye Kv=0.2200 Kva=150.0 %R=0.565
New Transformer.2008183680_2008183679 phases=3 windings=2 Xhl=3.840
~ wdg=1 bus=node_2325669130.1.2.3 conn=delta Kv=13.8 Kva=150.0 %R=0.565
~ wdg=2 bus=node_2325669205.1.2.3.4 conn=wye Kv=0.2200 Kva=150.0 %R=0.565
New Transformer.326584949_327074777 phases=3 windings=2 Xhl=3.840
~ wdg=1 bus=node_428684024.1.2.3 conn=delta Kv=13.8 Kva=150.0 %R=0.565
~ wdg=2 bus=node_418019829.1.2.3.4 conn=wye Kv=0.2200 Kva=150.0 %R=0.565
New Transformer.326091998_327042690 phases=3 windings=2 Xhl=3.840
~ wdg=1 bus=node_429003037.1.2.3 conn=delta Kv=13.8 Kva=150.0 %R=0.565
~ wdg=2 bus=node_417048603.1.2.3.4 conn=wye Kv=0.2200 Kva=150.0 %R=0.565
New Transformer.1491714276_1491714277 phases=3 windings=2 Xhl=3.840
~ wdg=1 bus=node_1799435471.1.2.3 conn=delta Kv=13.8 Kva=150.0 %R=0.565
~ wdg=2 bus=node_1799435483.1.2.3.4 conn=wye Kv=0.2200 Kva=150.0 %R=0.565
New Transformer.1688572986_1688572985 phases=3 windings=2 Xhl=3.840
~ wdg=1 bus=node_2014152917.1.2.3 conn=delta Kv=13.8 Kva=150.0 %R=0.565
~ wdg=2 bus=node_2014152887.1.2.3.4 conn=wye Kv=0.2200 Kva=150.0 %R=0.565
New Transformer.1939917836_1939917835 phases=3 windings=2 Xhl=3.840
~ wdg=1 bus=node_2257205839.1.2.3 conn=delta Kv=13.8 Kva=150.0 %R=0.565
~ wdg=2 bus=node_2257205829.1.2.3.4 conn=wye Kv=0.2200 Kva=150.0 %R=0.565
New Transformer.1435651880_2577117174 phases=3 windings=2 Xhl=3.840
~ wdg=1 bus=node_1731976715.1.2.3 conn=delta Kv=13.8 Kva=150.0 %R=0.565
~ wdg=2 bus=node_1731976701.1.2.3.4 conn=wye Kv=0.2200 Kva=150.0 %R=0.565
New Transformer.1165164105_1165164104 phases=3 windings=2 Xhl=3.840
~ wdg=1 bus=node_1436660802.1.2.3 conn=delta Kv=13.8 Kva=150.0 %R=0.565
~ wdg=2 bus=node_420896197.1.2.3.4 conn=wye Kv=0.2200 Kva=150.0 %R=0.565
New Transformer.326853259_1580677332 phases=3 windings=2 Xhl=3.840
~ wdg=1 bus=node_1900610541.1.2.3 conn=delta Kv=13.8 Kva=150.0 %R=0.565
~ wdg=2 bus=node_414562911.1.2.3.4 conn=wye Kv=0.2200 Kva=150.0 %R=0.565
New Transformer.326786130_2574902526 phases=3 windings=2 Xhl=4.960
~ wdg=1 bus=node_437539893.1.2.3 conn=delta Kv=13.8 Kva=150.0 %R=0.305
~ wdg=2 bus=node_418023618.1.2.3.4 conn=wye Kv=0.2200 Kva=150.0 %R=0.305
New Transformer.326852092_1627915528 phases=3 windings=2 Xhl=3.840
~ wdg=1 bus=node_430892602.1.2.3 conn=delta Kv=13.8 Kva=150.0 %R=0.565
~ wdg=2 bus=node_420529580.1.2.3.4 conn=wye Kv=0.2200 Kva=150.0 %R=0.565
New Transformer.326784764_2149503414 phases=3 windings=2 Xhl=3.840
~ wdg=1 bus=node_438174736.1.2.3 conn=delta Kv=13.8 Kva=150.0 %R=0.565
~ wdg=2 bus=node_414562902.1.2.3.4 conn=wye Kv=0.2200 Kva=150.0 %R=0.565
New Transformer.326785013_2176083262 phases=3 windings=2 Xhl=3.840
~ wdg=1 bus=node_429002182.1.2.3 conn=delta Kv=13.8 Kva=150.0 %R=0.565
~ wdg=2 bus=node_419262557.1.2.3.4 conn=wye Kv=0.2200 Kva=150.0 %R=0.565
New Transformer.2192507858_2192507857 phases=3 windings=2 Xhl=3.840
~ wdg=1 bus=node_2498257822.1.2.3 conn=delta Kv=13.8 Kva=150.0 %R=0.565
~ wdg=2 bus=node_2498257794.1.2.3.4 conn=wye Kv=0.2200 Kva=150.0 %R=0.565
New Transformer.835479570_835479572 phases=3 windings=2 Xhl=3.840
~ wdg=1 bus=node_1104756611.1.2.3 conn=delta Kv=13.8 Kva=112.5 %R=0.565
~ wdg=2 bus=node_1104756625.1.2.3.4 conn=wye Kv=0.2200 Kva=112.5 %R=0.565
New Transformer.326093692_327060192 phases=3 windings=2 Xhl=3.840
~ wdg=1 bus=node_429002263.1.2.3 conn=delta Kv=13.8 Kva=112.5 %R=0.565
~ wdg=2 bus=node_423072309.1.2.3.4 conn=wye Kv=0.2200 Kva=112.5 %R=0.565
New Transformer.326782859_327074771 phases=3 windings=2 Xhl=3.770
~ wdg=1 bus=node_425292717.1.2.3 conn=delta Kv=13.8 Kva=75.0 %R=0.670
~ wdg=2 bus=node_418022142.1.2.3.4 conn=wye Kv=0.2200 Kva=75.0 %R=0.670
New Transformer.326783017_327039651 phases=3 windings=2 Xhl=3.770
~ wdg=1 bus=node_430573611.1.2.3 conn=delta Kv=13.8 Kva=75.0 %R=0.670
~ wdg=2 bus=node_420020304.1.2.3.4 conn=wye Kv=0.2200 Kva=75.0 %R=0.670
New Transformer.326782963_327097976 phases=3 windings=2 Xhl=3.770
~ wdg=1 bus=node_442530111.1.2.3 conn=delta Kv=13.8 Kva=75.0 %R=0.670
~ wdg=2 bus=node_419905602.1.2.3.4 conn=wye Kv=0.2200 Kva=75.0 %R=0.670
New Transformer.326784306_327078076 phases=3 windings=2 Xhl=3.770
~ wdg=1 bus=node_428684174.1.2.3 conn=delta Kv=13.8 Kva=75.0 %R=0.670
~ wdg=2 bus=node_418019586.1.2.3.4 conn=wye Kv=0.2200 Kva=75.0 %R=0.670
New Transformer.326784260_2050994765 phases=3 windings=2 Xhl=3.770
~ wdg=1 bus=node_438010039.1.2.3 conn=delta Kv=13.8 Kva=75.0 %R=0.670
~ wdg=2 bus=node_411948997.1.2.3.4 conn=wye Kv=0.2200 Kva=75.0 %R=0.670
New Transformer.326784537_327117210 phases=3 windings=2 Xhl=3.770
~ wdg=1 bus=node_438657442.1.2.3 conn=delta Kv=13.8 Kva=75.0 %R=0.670
~ wdg=2 bus=node_417047916.1.2.3.4 conn=wye Kv=0.2200 Kva=75.0 %R=0.670
New Transformer.2290239279_2290239278 phases=3 windings=2 Xhl=3.770
~ wdg=1 bus=node_2495213435.1.2.3 conn=delta Kv=13.8 Kva=75.0 %R=0.670
~ wdg=2 bus=node_423072522.1.2.3.4 conn=wye Kv=0.2200 Kva=75.0 %R=0.670
New Transformer.326783818_327056906 phases=3 windings=2 Xhl=3.770
~ wdg=1 bus=node_437373260.1.2.3 conn=delta Kv=13.8 Kva=75.0 %R=0.670
~ wdg=2 bus=node_417593986.1.2.3.4 conn=wye Kv=0.2200 Kva=75.0 %R=0.670
New Transformer.326784346_2543151940 phases=3 windings=2 Xhl=3.770
~ wdg=1 bus=node_425477148.1.2.3 conn=delta Kv=13.8 Kva=75.0 %R=0.670
~ wdg=2 bus=node_418019649.1.2.3.4 conn=wye Kv=0.2200 Kva=75.0 %R=0.670
New Transformer.326784350_327056928 phases=3 windings=2 Xhl=3.770
~ wdg=1 bus=node_442529233.1.2.3 conn=delta Kv=13.8 Kva=75.0 %R=0.670
~ wdg=2 bus=node_418019589.1.2.3.4 conn=wye Kv=0.2200 Kva=75.0 %R=0.670
New Transformer.326784862_327056935 phases=3 windings=2 Xhl=3.770
~ wdg=1 bus=node_425477034.1.2.3 conn=delta Kv=13.8 Kva=75.0 %R=0.670
~ wdg=2 bus=node_418500420.1.2.3.4 conn=wye Kv=0.2200 Kva=75.0 %R=0.670
New Transformer.326783283_327117047 phases=3 windings=2 Xhl=3.770
~ wdg=1 bus=node_430410655.1.2.3 conn=delta Kv=13.8 Kva=75.0 %R=0.670
~ wdg=2 bus=node_423072528.1.2.3.4 conn=wye Kv=0.2200 Kva=75.0 %R=0.670
New Transformer.326785937_327074781 phases=3 windings=2 Xhl=3.770
~ wdg=1 bus=node_437539653.1.2.3 conn=delta Kv=13.8 Kva=75.0 %R=0.670
~ wdg=2 bus=node_418500576.1.2.3.4 conn=wye Kv=0.2200 Kva=75.0 %R=0.670
New Transformer.326785901_327041285 phases=3 windings=2 Xhl=3.770
~ wdg=1 bus=node_437373756.1.2.3 conn=delta Kv=13.8 Kva=75.0 %R=0.670
~ wdg=2 bus=node_419901525.1.2.3.4 conn=wye Kv=0.2200 Kva=75.0 %R=0.670
New Transformer.326785555_327042735 phases=3 windings=2 Xhl=3.770
~ wdg=1 bus=node_428684640.1.2.3 conn=delta Kv=13.8 Kva=75.0 %R=0.670
~ wdg=2 bus=node_418018173.1.2.3.4 conn=wye Kv=0.2200 Kva=75.0 %R=0.670
New Transformer.326851351_327039767 phases=3 windings=2 Xhl=3.770
~ wdg=1 bus=node_429002127.1.2.3 conn=delta Kv=13.8 Kva=75.0 %R=0.670
~ wdg=2 bus=node_420498860.1.2.3.4 conn=wye Kv=0.2200 Kva=75.0 %R=0.670
New Transformer.326851097_326854838 phases=3 windings=2 Xhl=3.770
~ wdg=1 bus=node_425293915.1.2.3 conn=delta Kv=13.8 Kva=75.0 %R=0.670
~ wdg=2 bus=node_417050370.1.2.3.4 conn=wye Kv=0.2200 Kva=75.0 %R=0.670
New Transformer.326786167_2619713602 phases=3 windings=2 Xhl=3.770
~ wdg=1 bus=node_438337534.1.2.3 conn=delta Kv=13.8 Kva=75.0 %R=0.670
~ wdg=2 bus=node_419264258.1.2.3.4 conn=wye Kv=0.2200 Kva=75.0 %R=0.670
New Transformer.330773054_331721027 phases=3 windings=2 Xhl=3.770
~ wdg=1 bus=node_424845270.1.2.3 conn=delta Kv=13.8 Kva=75.0 %R=0.670
~ wdg=2 bus=node_412329220.1.2.3.4 conn=wye Kv=0.2200 Kva=75.0 %R=0.670
New Transformer.326785931_327057207 phases=3 windings=2 Xhl=3.770
~ wdg=1 bus=node_425477513.1.2.3 conn=delta Kv=13.8 Kva=75.0 %R=0.670
~ wdg=2 bus=node_423071307.1.2.3.4 conn=wye Kv=0.2200 Kva=75.0 %R=0.670
New Transformer.326785222_327117258 phases=3 windings=2 Xhl=3.770
~ wdg=1 bus=node_428684515.1.2.3 conn=delta Kv=13.8 Kva=75.0 %R=0.670
~ wdg=2 bus=node_418018179.1.2.3.4 conn=wye Kv=0.2200 Kva=75.0 %R=0.670
New Transformer.326852151_439911712 phases=3 windings=2 Xhl=3.770
~ wdg=1 bus=node_438175731.1.2.3 conn=delta Kv=13.8 Kva=75.0 %R=0.670
~ wdg=2 bus=node_422717067.1.2.3.4 conn=wye Kv=0.2200 Kva=75.0 %R=0.670
New Transformer.326852133_327057086 phases=3 windings=2 Xhl=3.770
~ wdg=1 bus=node_437372451.1.2.3 conn=delta Kv=13.8 Kva=75.0 %R=0.670
~ wdg=2 bus=node_413768989.1.2.3.4 conn=wye Kv=0.2200 Kva=75.0 %R=0.670
New Transformer.326852271_327074729 phases=3 windings=2 Xhl=3.770
~ wdg=1 bus=node_437539293.1.2.3 conn=delta Kv=13.8 Kva=75.0 %R=0.670
~ wdg=2 bus=node_417047598.1.2.3.4 conn=wye Kv=0.2200 Kva=75.0 %R=0.670
New Transformer.326851840_327056943 phases=3 windings=2 Xhl=3.770
~ wdg=1 bus=node_425478399.1.2.3 conn=delta Kv=13.8 Kva=75.0 %R=0.670
~ wdg=2 bus=node_410912220.1.2.3.4 conn=wye Kv=0.2200 Kva=75.0 %R=0.670
New Transformer.326851335_327057846 phases=3 windings=2 Xhl=3.770
~ wdg=1 bus=node_429003322.1.2.3 conn=delta Kv=13.8 Kva=75.0 %R=0.670
~ wdg=2 bus=node_418989446.1.2.3.4 conn=wye Kv=0.2200 Kva=75.0 %R=0.670
New Transformer.326851325_2535787379 phases=3 windings=2 Xhl=3.770
~ wdg=1 bus=node_428684530.1.2.3 conn=delta Kv=13.8 Kva=75.0 %R=0.670
~ wdg=2 bus=node_417046308.1.2.3.4 conn=wye Kv=0.2200 Kva=75.0 %R=0.670
New Transformer.326851181_1125929755 phases=3 windings=2 Xhl=3.770
~ wdg=1 bus=node_437538748.1.2.3 conn=delta Kv=13.8 Kva=75.0 %R=0.670
~ wdg=2 bus=node_418530696.1.2.3.4 conn=wye Kv=0.2200 Kva=75.0 %R=0.670
New Transformer.326851139_1374844353 phases=3 windings=2 Xhl=3.770
~ wdg=1 bus=node_425293816.1.2.3 conn=delta Kv=13.8 Kva=75.0 %R=0.670
~ wdg=2 bus=node_418019820.1.2.3.4 conn=wye Kv=0.2200 Kva=75.0 %R=0.670
New Transformer.1156434517_1156434516 phases=3 windings=2 Xhl=3.770
~ wdg=1 bus=node_1427343061.1.2.3 conn=delta Kv=13.8 Kva=75.0 %R=0.670
~ wdg=2 bus=node_1427343209.1.2.3.4 conn=wye Kv=0.2200 Kva=75.0 %R=0.670
New Transformer.326852867_1581553612 phases=3 windings=2 Xhl=3.770
~ wdg=1 bus=node_1901839140.1.2.3 conn=delta Kv=13.8 Kva=75.0 %R=0.670
~ wdg=2 bus=node_463532151.1.2.3.4 conn=wye Kv=0.2200 Kva=75.0 %R=0.670
New Transformer.326851713_327117051 phases=3 windings=2 Xhl=3.770
~ wdg=1 bus=node_428684054.1.2.3 conn=delta Kv=13.8 Kva=75.0 %R=0.670
~ wdg=2 bus=node_418023960.1.2.3.4 conn=wye Kv=0.2200 Kva=75.0 %R=0.670
New Transformer.326851474_327074678 phases=3 windings=2 Xhl=3.770
~ wdg=1 bus=node_438654752.1.2.3 conn=delta Kv=13.8 Kva=75.0 %R=0.670
~ wdg=2 bus=node_417593404.1.2.3.4 conn=wye Kv=0.2200 Kva=75.0 %R=0.670
New Transformer.331239988_867143242 phases=3 windings=2 Xhl=3.770
~ wdg=1 bus=node_427668690.1.2.3 conn=delta Kv=13.8 Kva=75.0 %R=0.670
~ wdg=2 bus=node_410912427.1.2.3.4 conn=wye Kv=0.2200 Kva=75.0 %R=0.670
New Transformer.326852477_326854835 phases=3 windings=2 Xhl=3.770
~ wdg=1 bus=node_425477094.1.2.3 conn=delta Kv=13.8 Kva=75.0 %R=0.670
~ wdg=2 bus=node_418500738.1.2.3.4 conn=wye Kv=0.2200 Kva=75.0 %R=0.670
New Transformer.326852950_327117262 phases=3 windings=2 Xhl=3.770
~ wdg=1 bus=node_1139917301.1.2.3 conn=delta Kv=13.8 Kva=75.0 %R=0.670
~ wdg=2 bus=node_418470051.1.2.3.4 conn=wye Kv=0.2200 Kva=75.0 %R=0.670
New Transformer.326852818_327056899 phases=3 windings=2 Xhl=3.770
~ wdg=1 bus=node_437218416.1.2.3 conn=delta Kv=13.8 Kva=75.0 %R=0.670
~ wdg=2 bus=node_423058090.1.2.3.4 conn=wye Kv=0.2200 Kva=75.0 %R=0.670
New Transformer.326853055_326854836 phases=3 windings=2 Xhl=3.770
~ wdg=1 bus=node_425294814.1.2.3 conn=delta Kv=13.8 Kva=75.0 %R=0.670
~ wdg=2 bus=node_418500294.1.2.3.4 conn=wye Kv=0.2200 Kva=75.0 %R=0.670
New Transformer.872944748_872944747 phases=3 windings=2 Xhl=3.770
~ wdg=1 bus=node_1139915952.1.2.3 conn=delta Kv=13.8 Kva=75.0 %R=0.670
~ wdg=2 bus=node_1139916062.1.2.3.4 conn=wye Kv=0.2200 Kva=75.0 %R=0.670
New Transformer.872944782_872944783 phases=3 windings=2 Xhl=3.770
~ wdg=1 bus=node_1139915962.1.2.3 conn=delta Kv=13.8 Kva=75.0 %R=0.670
~ wdg=2 bus=node_1139916090.1.2.3.4 conn=wye Kv=0.2200 Kva=75.0 %R=0.670
New Transformer.872944785_872944786 phases=3 windings=2 Xhl=3.770
~ wdg=1 bus=node_1139915903.1.2.3 conn=delta Kv=13.8 Kva=75.0 %R=0.670
~ wdg=2 bus=node_1139916085.1.2.3.4 conn=wye Kv=0.2200 Kva=75.0 %R=0.670
New Transformer.778708382_778708381 phases=3 windings=2 Xhl=3.770
~ wdg=1 bus=node_1051450389.1.2.3 conn=delta Kv=13.8 Kva=75.0 %R=0.670
~ wdg=2 bus=node_1051450375.1.2.3.4 conn=wye Kv=0.2200 Kva=75.0 %R=0.670
New Transformer.1335356904_1335356905 phases=3 windings=2 Xhl=3.770
~ wdg=1 bus=node_1630655532.1.2.3 conn=delta Kv=13.8 Kva=75.0 %R=0.670
~ wdg=2 bus=node_1630655459.1.2.3.4 conn=wye Kv=0.2200 Kva=75.0 %R=0.670
New Transformer.971749536_971749551 phases=3 windings=2 Xhl=3.770
~ wdg=1 bus=node_1233911602.1.2.3 conn=delta Kv=13.8 Kva=75.0 %R=0.670
~ wdg=2 bus=node_1233911984.1.2.3.4 conn=wye Kv=0.2200 Kva=75.0 %R=0.670
New Transformer.326584579_327117082 phases=3 windings=2 Xhl=3.770
~ wdg=1 bus=node_439118723.1.2.3 conn=delta Kv=13.8 Kva=75.0 %R=0.670
~ wdg=2 bus=node_411971549.1.2.3.4 conn=wye Kv=0.2200 Kva=75.0 %R=0.670
New Transformer.326584485_327078134 phases=3 windings=2 Xhl=3.770
~ wdg=1 bus=node_429003722.1.2.3 conn=delta Kv=13.8 Kva=75.0 %R=0.670
~ wdg=2 bus=node_418028712.1.2.3.4 conn=wye Kv=0.2200 Kva=75.0 %R=0.670
New Transformer.326585299_1554239064 phases=3 windings=2 Xhl=3.770
~ wdg=1 bus=node_425293616.1.2.3 conn=delta Kv=13.8 Kva=75.0 %R=0.670
~ wdg=2 bus=node_418500135.1.2.3.4 conn=wye Kv=0.2200 Kva=75.0 %R=0.670
New Transformer.326584999_327117253 phases=3 windings=2 Xhl=3.770
~ wdg=1 bus=node_425293367.1.2.3 conn=delta Kv=13.8 Kva=75.0 %R=0.670
~ wdg=2 bus=node_418017756.1.2.3.4 conn=wye Kv=0.2200 Kva=75.0 %R=0.670
New Transformer.326091947_327098502 phases=3 windings=2 Xhl=3.770
~ wdg=1 bus=node_437865278.1.2.3 conn=delta Kv=13.8 Kva=75.0 %R=0.670
~ wdg=2 bus=node_418733571.1.2.3.4 conn=wye Kv=0.2200 Kva=75.0 %R=0.670
New Transformer.326091872_1986713568 phases=3 windings=2 Xhl=3.770
~ wdg=1 bus=node_437538393.1.2.3 conn=delta Kv=13.8 Kva=75.0 %R=0.670
~ wdg=2 bus=node_418529070.1.2.3.4 conn=wye Kv=0.2200 Kva=75.0 %R=0.670
New Transformer.326091621_327077828 phases=3 windings=2 Xhl=3.770
~ wdg=1 bus=node_438655736.1.2.3 conn=delta Kv=13.8 Kva=75.0 %R=0.670
~ wdg=2 bus=node_413850769.1.2.3.4 conn=wye Kv=0.2200 Kva=75.0 %R=0.670
New Transformer.1517825994_1517825993 phases=3 windings=2 Xhl=3.770
~ wdg=1 bus=node_1832507488.1.2.3 conn=delta Kv=13.8 Kva=75.0 %R=0.670
~ wdg=2 bus=node_1832507476.1.2.3.4 conn=wye Kv=0.2200 Kva=75.0 %R=0.670
New Transformer.326092054_938853051 phases=3 windings=2 Xhl=3.770
~ wdg=1 bus=node_1277732083.1.2.3 conn=delta Kv=13.8 Kva=75.0 %R=0.670
~ wdg=2 bus=node_1277731516.1.2.3.4 conn=wye Kv=0.2200 Kva=75.0 %R=0.670
New Transformer.326586583_327096184 phases=3 windings=2 Xhl=3.770
~ wdg=1 bus=node_437864024.1.2.3 conn=delta Kv=13.8 Kva=75.0 %R=0.670
~ wdg=2 bus=node_418383744.1.2.3.4 conn=wye Kv=0.2200 Kva=75.0 %R=0.670
New Transformer.326585850_326854842 phases=3 windings=2 Xhl=3.770
~ wdg=1 bus=node_442529287.1.2.3 conn=delta Kv=13.8 Kva=75.0 %R=0.670
~ wdg=2 bus=node_418017597.1.2.3.4 conn=wye Kv=0.2200 Kva=75.0 %R=0.670
New Transformer.326585360_327039637 phases=3 windings=2 Xhl=3.770
~ wdg=1 bus=node_429003761.1.2.3 conn=delta Kv=13.8 Kva=75.0 %R=0.670
~ wdg=2 bus=node_423707780.1.2.3.4 conn=wye Kv=0.2200 Kva=75.0 %R=0.670
New Transformer.326585233_326854652 phases=3 windings=2 Xhl=3.770
~ wdg=1 bus=node_430410500.1.2.3 conn=delta Kv=13.8 Kva=75.0 %R=0.670
~ wdg=2 bus=node_417048783.1.2.3.4 conn=wye Kv=0.2200 Kva=75.0 %R=0.670
New Transformer.326585609_327097541 phases=3 windings=2 Xhl=3.770
~ wdg=1 bus=node_425292937.1.2.3 conn=delta Kv=13.8 Kva=75.0 %R=0.670
~ wdg=2 bus=node_418019808.1.2.3.4 conn=wye Kv=0.2200 Kva=75.0 %R=0.670
New Transformer.2028739142_2028739141 phases=3 windings=2 Xhl=3.770
~ wdg=1 bus=node_2345868276.1.2.3 conn=delta Kv=13.8 Kva=75.0 %R=0.670
~ wdg=2 bus=node_2345868315.1.2.3.4 conn=wye Kv=0.2200 Kva=75.0 %R=0.670
New Transformer.326585633_327097447 phases=3 windings=2 Xhl=3.770
~ wdg=1 bus=node_425627184.1.2.3 conn=delta Kv=13.8 Kva=75.0 %R=0.670
~ wdg=2 bus=node_423060877.1.2.3.4 conn=wye Kv=0.2200 Kva=75.0 %R=0.670
New Transformer.2062210802_2062210801 phases=3 windings=2 Xhl=3.770
~ wdg=1 bus=node_2375513885.1.2.3 conn=delta Kv=13.8 Kva=75.0 %R=0.670
~ wdg=2 bus=node_464023567.1.2.3.4 conn=wye Kv=0.2200 Kva=75.0 %R=0.670
New Transformer.326586638_326854844 phases=3 windings=2 Xhl=3.770
~ wdg=1 bus=node_425292607.1.2.3 conn=delta Kv=13.8 Kva=75.0 %R=0.670
~ wdg=2 bus=node_418021389.1.2.3.4 conn=wye Kv=0.2200 Kva=75.0 %R=0.670
New Transformer.560624863_560624870 phases=3 windings=2 Xhl=3.770
~ wdg=1 bus=node_829991681.1.2.3 conn=delta Kv=13.8 Kva=75.0 %R=0.670
~ wdg=2 bus=node_829991684.1.2.3.4 conn=wye Kv=0.2200 Kva=75.0 %R=0.670
New Transformer.326586746_326854777 phases=3 windings=2 Xhl=3.770
~ wdg=1 bus=node_429003667.1.2.3 conn=delta Kv=13.8 Kva=75.0 %R=0.670
~ wdg=2 bus=node_417048132.1.2.3.4 conn=wye Kv=0.2200 Kva=75.0 %R=0.670
New Transformer.326586406_2567623150 phases=3 windings=2 Xhl=3.770
~ wdg=1 bus=node_425294034.1.2.3 conn=delta Kv=13.8 Kva=75.0 %R=0.670
~ wdg=2 bus=node_418500303.1.2.3.4 conn=wye Kv=0.2200 Kva=75.0 %R=0.670
New Transformer.326586071_1817770518 phases=3 windings=2 Xhl=3.770
~ wdg=1 bus=node_437217816.1.2.3 conn=delta Kv=13.8 Kva=75.0 %R=0.670
~ wdg=2 bus=node_417048417.1.2.3.4 conn=wye Kv=0.2200 Kva=75.0 %R=0.670
New Transformer.326587152_327042623 phases=3 windings=2 Xhl=3.770
~ wdg=1 bus=node_437539348.1.2.3 conn=delta Kv=13.8 Kva=75.0 %R=0.670
~ wdg=2 bus=node_418030380.1.2.3.4 conn=wye Kv=0.2200 Kva=75.0 %R=0.670
New Transformer.326587172_327074774 phases=3 windings=2 Xhl=3.770
~ wdg=1 bus=node_428684849.1.2.3 conn=delta Kv=13.8 Kva=75.0 %R=0.670
~ wdg=2 bus=node_418021290.1.2.3.4 conn=wye Kv=0.2200 Kva=75.0 %R=0.670
New Transformer.326587422_327060378 phases=3 windings=2 Xhl=3.770
~ wdg=1 bus=node_425476574.1.2.3 conn=delta Kv=13.8 Kva=75.0 %R=0.670
~ wdg=2 bus=node_418500111.1.2.3.4 conn=wye Kv=0.2200 Kva=75.0 %R=0.670
New Transformer.326587197_327056873 phases=3 windings=2 Xhl=3.770
~ wdg=1 bus=node_425477223.1.2.3 conn=delta Kv=13.8 Kva=75.0 %R=0.670
~ wdg=2 bus=node_423071943.1.2.3.4 conn=wye Kv=0.2200 Kva=75.0 %R=0.670
New Transformer.326586957_327077931 phases=3 windings=2 Xhl=3.770
~ wdg=1 bus=node_429174729.1.2.3 conn=delta Kv=13.8 Kva=75.0 %R=0.670
~ wdg=2 bus=node_410911302.1.2.3.4 conn=wye Kv=0.2200 Kva=75.0 %R=0.670
New Transformer.1827238987_1827238986 phases=3 windings=2 Xhl=3.770
~ wdg=1 bus=node_2149812698.1.2.3 conn=delta Kv=13.8 Kva=75.0 %R=0.670
~ wdg=2 bus=node_2149812739.1.2.3.4 conn=wye Kv=0.2200 Kva=75.0 %R=0.670
New Transformer.2087287814_2087287813 phases=3 windings=2 Xhl=3.770
~ wdg=1 bus=node_2399809421.1.2.3 conn=delta Kv=13.8 Kva=75.0 %R=0.670
~ wdg=2 bus=node_2399809443.1.2.3.4 conn=wye Kv=0.2200 Kva=75.0 %R=0.670
New Transformer.326587947_2535757922 phases=3 windings=2 Xhl=3.770
~ wdg=1 bus=node_438010974.1.2.3 conn=delta Kv=13.8 Kva=75.0 %R=0.670
~ wdg=2 bus=node_410911341.1.2.3.4 conn=wye Kv=0.2200 Kva=75.0 %R=0.670
New Transformer.326092557_327042526 phases=3 windings=2 Xhl=3.770
~ wdg=1 bus=node_425476744.1.2.3 conn=delta Kv=13.8 Kva=75.0 %R=0.670
~ wdg=2 bus=node_423058093.1.2.3.4 conn=wye Kv=0.2200 Kva=75.0 %R=0.670
New Transformer.326675206_326854934 phases=3 windings=2 Xhl=3.770
~ wdg=1 bus=node_425479159.1.2.3 conn=delta Kv=13.8 Kva=75.0 %R=0.670
~ wdg=2 bus=node_418590183.1.2.3.4 conn=wye Kv=0.2200 Kva=75.0 %R=0.670
New Transformer.326675065_327096093 phases=3 windings=2 Xhl=3.770
~ wdg=1 bus=node_437217351.1.2.3 conn=delta Kv=13.8 Kva=75.0 %R=0.670
~ wdg=2 bus=node_418202530.1.2.3.4 conn=wye Kv=0.2200 Kva=75.0 %R=0.670
New Transformer.326093338_327097977 phases=3 windings=2 Xhl=3.770
~ wdg=1 bus=node_429002128.1.2.3 conn=delta Kv=13.8 Kva=75.0 %R=0.670
~ wdg=2 bus=node_420471911.1.2.3.4 conn=wye Kv=0.2200 Kva=75.0 %R=0.670
New Transformer.326093024_327040167 phases=3 windings=2 Xhl=3.770
~ wdg=1 bus=node_429002192.1.2.3 conn=delta Kv=13.8 Kva=75.0 %R=0.670
~ wdg=2 bus=node_515462200.1.2.3.4 conn=wye Kv=0.2200 Kva=75.0 %R=0.670
New Transformer.326094509_503467206 phases=3 windings=2 Xhl=3.770
~ wdg=1 bus=node_429003122.1.2.3 conn=delta Kv=13.8 Kva=75.0 %R=0.670
~ wdg=2 bus=node_418530693.1.2.3.4 conn=wye Kv=0.2200 Kva=75.0 %R=0.670
New Transformer.326676517_327097629 phases=3 windings=2 Xhl=3.770
~ wdg=1 bus=node_428685320.1.2.3 conn=delta Kv=13.8 Kva=75.0 %R=0.670
~ wdg=2 bus=node_418021098.1.2.3.4 conn=wye Kv=0.2200 Kva=75.0 %R=0.670
New Transformer.437984867_437984866 phases=3 windings=2 Xhl=3.770
~ wdg=1 bus=node_706867067.1.2.3 conn=delta Kv=13.8 Kva=75.0 %R=0.670
~ wdg=2 bus=node_706866305.1.2.3.4 conn=wye Kv=0.2200 Kva=75.0 %R=0.670
New Transformer.326676229_1341230903 phases=3 windings=2 Xhl=3.770
~ wdg=1 bus=node_431048485.1.2.3 conn=delta Kv=13.8 Kva=75.0 %R=0.670
~ wdg=2 bus=node_420927136.1.2.3.4 conn=wye Kv=0.2200 Kva=75.0 %R=0.670
New Transformer.326676231_1418909645 phases=3 windings=2 Xhl=3.770
~ wdg=1 bus=node_425476619.1.2.3 conn=delta Kv=13.8 Kva=75.0 %R=0.670
~ wdg=2 bus=node_418529943.1.2.3.4 conn=wye Kv=0.2200 Kva=75.0 %R=0.670
New Transformer.326094778_327060369 phases=3 windings=2 Xhl=3.770
~ wdg=1 bus=node_425292357.1.2.3 conn=delta Kv=13.8 Kva=75.0 %R=0.670
~ wdg=2 bus=node_418019616.1.2.3.4 conn=wye Kv=0.2200 Kva=75.0 %R=0.670
New Transformer.426875170_426875169 phases=3 windings=2 Xhl=3.770
~ wdg=1 bus=node_694855129.1.2.3 conn=delta Kv=13.8 Kva=75.0 %R=0.670
~ wdg=2 bus=node_694855114.1.2.3.4 conn=wye Kv=0.2200 Kva=75.0 %R=0.670
New Transformer.326675876_327039713 phases=3 windings=2 Xhl=3.770
~ wdg=1 bus=node_431048700.1.2.3 conn=delta Kv=13.8 Kva=75.0 %R=0.670
~ wdg=2 bus=node_419938561.1.2.3.4 conn=wye Kv=0.2200 Kva=75.0 %R=0.670
New Transformer.326675885_2004499316 phases=3 windings=2 Xhl=3.770
~ wdg=1 bus=node_425478364.1.2.3 conn=delta Kv=13.8 Kva=75.0 %R=0.670
~ wdg=2 bus=node_410912400.1.2.3.4 conn=wye Kv=0.2200 Kva=75.0 %R=0.670
New Transformer.326675773_327056927 phases=3 windings=2 Xhl=3.770
~ wdg=1 bus=node_437540118.1.2.3 conn=delta Kv=13.8 Kva=75.0 %R=0.670
~ wdg=2 bus=node_418017738.1.2.3.4 conn=wye Kv=0.2200 Kva=75.0 %R=0.670
New Transformer.326094074_327078013 phases=3 windings=2 Xhl=3.770
~ wdg=1 bus=node_437370436.1.2.3 conn=delta Kv=13.8 Kva=75.0 %R=0.670
~ wdg=2 bus=node_417595327.1.2.3.4 conn=wye Kv=0.2200 Kva=75.0 %R=0.670
New Transformer.326676004_975571422 phases=3 windings=2 Xhl=3.770
~ wdg=1 bus=node_425626034.1.2.3 conn=delta Kv=13.8 Kva=75.0 %R=0.670
~ wdg=2 bus=node_410911467.1.2.3.4 conn=wye Kv=0.2200 Kva=75.0 %R=0.670
New Transformer.326675930_327039900 phases=3 windings=2 Xhl=3.770
~ wdg=1 bus=node_431208087.1.2.3 conn=delta Kv=13.8 Kva=75.0 %R=0.670
~ wdg=2 bus=node_412302563.1.2.3.4 conn=wye Kv=0.2200 Kva=75.0 %R=0.670
New Transformer.326675645_1889926818 phases=3 windings=2 Xhl=3.770
~ wdg=1 bus=node_438010713.1.2.3 conn=delta Kv=13.8 Kva=75.0 %R=0.670
~ wdg=2 bus=node_410911410.1.2.3.4 conn=wye Kv=0.2200 Kva=75.0 %R=0.670
New Transformer.326675530_327078168 phases=3 windings=2 Xhl=3.770
~ wdg=1 bus=node_425293322.1.2.3 conn=delta Kv=13.8 Kva=75.0 %R=0.670
~ wdg=2 bus=node_418018572.1.2.3.4 conn=wye Kv=0.2200 Kva=75.0 %R=0.670
New Transformer.326676139_2289088501 phases=3 windings=2 Xhl=3.770
~ wdg=1 bus=node_425293586.1.2.3 conn=delta Kv=13.8 Kva=75.0 %R=0.670
~ wdg=2 bus=node_418500129.1.2.3.4 conn=wye Kv=0.2200 Kva=75.0 %R=0.670
New Transformer.326094262_1124383912 phases=3 windings=2 Xhl=3.770
~ wdg=1 bus=node_437539673.1.2.3 conn=delta Kv=13.8 Kva=75.0 %R=0.670
~ wdg=2 bus=node_418500600.1.2.3.4 conn=wye Kv=0.2200 Kva=75.0 %R=0.670
New Transformer.326677330_327078065 phases=3 windings=2 Xhl=3.770
~ wdg=1 bus=node_425292458.1.2.3 conn=delta Kv=13.8 Kva=75.0 %R=0.670
~ wdg=2 bus=node_418019631.1.2.3.4 conn=wye Kv=0.2200 Kva=75.0 %R=0.670
New Transformer.326677315_327097454 phases=3 windings=2 Xhl=3.770
~ wdg=1 bus=node_437372141.1.2.3 conn=delta Kv=13.8 Kva=75.0 %R=0.670
~ wdg=2 bus=node_423072306.1.2.3.4 conn=wye Kv=0.2200 Kva=75.0 %R=0.670
New Transformer.326678332_327060467 phases=3 windings=2 Xhl=3.770
~ wdg=1 bus=node_425477278.1.2.3 conn=delta Kv=13.8 Kva=75.0 %R=0.670
~ wdg=2 bus=node_423061309.1.2.3.4 conn=wye Kv=0.2200 Kva=75.0 %R=0.670
New Transformer.326676954_327075185 phases=3 windings=2 Xhl=3.770
~ wdg=1 bus=node_430409874.1.2.3 conn=delta Kv=13.8 Kva=75.0 %R=0.670
~ wdg=2 bus=node_419868236.1.2.3.4 conn=wye Kv=0.2200 Kva=75.0 %R=0.670
New Transformer.326676799_971749571 phases=3 windings=2 Xhl=3.770
~ wdg=1 bus=node_1233911429.1.2.3 conn=delta Kv=13.8 Kva=75.0 %R=0.670
~ wdg=2 bus=node_1233911779.1.2.3.4 conn=wye Kv=0.2200 Kva=75.0 %R=0.670
New Transformer.331570491_331777889 phases=3 windings=2 Xhl=3.770
~ wdg=1 bus=node_434920257.1.2.3 conn=delta Kv=13.8 Kva=75.0 %R=0.670
~ wdg=2 bus=node_498803915.1.2.3.4 conn=wye Kv=0.2200 Kva=75.0 %R=0.670
New Transformer.326677139_326854776 phases=3 windings=2 Xhl=3.770
~ wdg=1 bus=node_438339074.1.2.3 conn=delta Kv=13.8 Kva=75.0 %R=0.670
~ wdg=2 bus=node_417594394.1.2.3.4 conn=wye Kv=0.2200 Kva=75.0 %R=0.670
New Transformer.326677791_2024530848 phases=3 windings=2 Xhl=3.770
~ wdg=1 bus=node_442529223.1.2.3 conn=delta Kv=13.8 Kva=75.0 %R=0.670
~ wdg=2 bus=node_418021374.1.2.3.4 conn=wye Kv=0.2200 Kva=75.0 %R=0.670
New Transformer.326677359_327042753 phases=3 windings=2 Xhl=3.770
~ wdg=1 bus=node_437538753.1.2.3 conn=delta Kv=13.8 Kva=75.0 %R=0.670
~ wdg=2 bus=node_418021392.1.2.3.4 conn=wye Kv=0.2200 Kva=75.0 %R=0.670
New Transformer.326677239_327117263 phases=3 windings=2 Xhl=3.770
~ wdg=1 bus=node_425294614.1.2.3 conn=delta Kv=13.8 Kva=75.0 %R=0.670
~ wdg=2 bus=node_418500483.1.2.3.4 conn=wye Kv=0.2200 Kva=75.0 %R=0.670
New Transformer.326676909_1807125821 phases=3 windings=2 Xhl=3.770
~ wdg=1 bus=node_430891857.1.2.3 conn=delta Kv=13.8 Kva=75.0 %R=0.670
~ wdg=2 bus=node_417048402.1.2.3.4 conn=wye Kv=0.2200 Kva=75.0 %R=0.670
New Transformer.326677398_327075955 phases=3 windings=2 Xhl=3.770
~ wdg=1 bus=node_431208312.1.2.3 conn=delta Kv=13.8 Kva=75.0 %R=0.670
~ wdg=2 bus=node_412357669.1.2.3.4 conn=wye Kv=0.2200 Kva=75.0 %R=0.670
New Transformer.326677372_327117337 phases=3 windings=2 Xhl=3.770
~ wdg=1 bus=node_437693908.1.2.3 conn=delta Kv=13.8 Kva=75.0 %R=0.670
~ wdg=2 bus=node_417047331.1.2.3.4 conn=wye Kv=0.2200 Kva=75.0 %R=0.670
New Transformer.326677284_327078029 phases=3 windings=2 Xhl=3.770
~ wdg=1 bus=node_437216546.1.2.3 conn=delta Kv=13.8 Kva=75.0 %R=0.670
~ wdg=2 bus=node_418467513.1.2.3.4 conn=wye Kv=0.2200 Kva=75.0 %R=0.670
New Transformer.326678058_2588617234 phases=3 windings=2 Xhl=3.770
~ wdg=1 bus=node_428685265.1.2.3 conn=delta Kv=13.8 Kva=75.0 %R=0.670
~ wdg=2 bus=node_420530588.1.2.3.4 conn=wye Kv=0.2200 Kva=75.0 %R=0.670
New Transformer.456349145_456349144 phases=3 windings=2 Xhl=3.770
~ wdg=1 bus=node_428684700.1.2.3 conn=delta Kv=13.8 Kva=75.0 %R=0.670
~ wdg=2 bus=node_418019520.1.2.3.4 conn=wye Kv=0.2200 Kva=75.0 %R=0.670
New Transformer.326678396_327097766 phases=3 windings=2 Xhl=3.770
~ wdg=1 bus=node_437216796.1.2.3 conn=delta Kv=13.8 Kva=75.0 %R=0.670
~ wdg=2 bus=node_410910444.1.2.3.4 conn=wye Kv=0.2200 Kva=75.0 %R=0.670
New Transformer.326782205_327074778 phases=3 windings=2 Xhl=3.770
~ wdg=1 bus=node_425294754.1.2.3 conn=delta Kv=13.8 Kva=75.0 %R=0.670
~ wdg=2 bus=node_418017744.1.2.3.4 conn=wye Kv=0.2200 Kva=75.0 %R=0.670
New Transformer.326782716_327042676 phases=3 windings=2 Xhl=3.770
~ wdg=1 bus=node_437216156.1.2.3 conn=delta Kv=13.8 Kva=75.0 %R=0.670
~ wdg=2 bus=node_417048300.1.2.3.4 conn=wye Kv=0.2200 Kva=75.0 %R=0.670
New Transformer.326782672_1126844364 phases=3 windings=2 Xhl=3.770
~ wdg=1 bus=node_438012584.1.2.3 conn=delta Kv=13.8 Kva=75.0 %R=0.670
~ wdg=2 bus=node_417594724.1.2.3.4 conn=wye Kv=0.2200 Kva=75.0 %R=0.670
New Transformer.2630835308_2630835307 phases=3 windings=2 Xhl=3.770
~ wdg=1 bus=node_2787641373.1.2.3 conn=delta Kv=13.8 Kva=75.0 %R=0.670
~ wdg=2 bus=node_2787641378.1.2.3.4 conn=wye Kv=0.2200 Kva=75.0 %R=0.670
New Transformer.2574272640_2574272639 phases=3 windings=2 Xhl=4.960
~ wdg=1 bus=node_2963822535.1.2.3 conn=delta Kv=13.8 Kva=75.0 %R=0.305
~ wdg=2 bus=node_2963822578.1.2.3.4 conn=wye Kv=0.2200 Kva=75.0 %R=0.305
New Transformer.2549541747_2549541746 phases=3 windings=2 Xhl=4.960
~ wdg=1 bus=node_2787004993.1.2.3 conn=delta Kv=13.8 Kva=75.0 %R=0.305
~ wdg=2 bus=node_2787004975.1.2.3.4 conn=wye Kv=0.2200 Kva=75.0 %R=0.305
New Transformer.2544524255_2544524254 phases=3 windings=2 Xhl=3.770
~ wdg=1 bus=node_2893496103.1.2.3 conn=delta Kv=13.8 Kva=75.0 %R=0.670
~ wdg=2 bus=node_2893496136.1.2.3.4 conn=wye Kv=0.2200 Kva=75.0 %R=0.670
New Transformer.2768320504_2768320505 phases=3 windings=2 Xhl=4.960
~ wdg=1 bus=node_2986872241.1.2.3 conn=delta Kv=13.8 Kva=75.0 %R=0.305
~ wdg=2 bus=node_2986872548.1.2.3.4 conn=wye Kv=0.2200 Kva=75.0 %R=0.305
New Transformer.2679275666_2679275665 phases=3 windings=2 Xhl=3.770
~ wdg=1 bus=node_430572990.1.2.3 conn=delta Kv=13.8 Kva=75.0 %R=0.670
~ wdg=2 bus=node_418202485.1.2.3.4 conn=wye Kv=0.2200 Kva=75.0 %R=0.670
New Transformer.1019163833_1019163832 phases=3 windings=2 Xhl=3.700
~ wdg=1 bus=node_1213201121.1.2.3 conn=delta Kv=13.8 Kva=45.0 %R=0.760
~ wdg=2 bus=node_1213201107.1.2.3.4 conn=wye Kv=0.2200 Kva=45.0 %R=0.760
New Transformer.2204514556_2204514558 phases=3 windings=2 Xhl=3.700
~ wdg=1 bus=node_2510119000.1.2.3 conn=delta Kv=13.8 Kva=45.0 %R=0.760
~ wdg=2 bus=node_2510118974.1.2.3.4 conn=wye Kv=0.2200 Kva=45.0 %R=0.760
New Transformer.2204514045_2204514044 phases=3 windings=2 Xhl=3.700
~ wdg=1 bus=node_2515026994.1.2.3 conn=delta Kv=13.8 Kva=45.0 %R=0.760
~ wdg=2 bus=node_2510118055.1.2.3.4 conn=wye Kv=0.2200 Kva=45.0 %R=0.760
New Transformer.2204514284_2204514283 phases=3 windings=2 Xhl=3.700
~ wdg=1 bus=node_2510118522.1.2.3 conn=delta Kv=13.8 Kva=45.0 %R=0.760
~ wdg=2 bus=node_2510118531.1.2.3.4 conn=wye Kv=0.2200 Kva=45.0 %R=0.760
New Transformer.326782852_326854736 phases=3 windings=2 Xhl=3.700
~ wdg=1 bus=node_437217316.1.2.3 conn=delta Kv=13.8 Kva=45.0 %R=0.760
~ wdg=2 bus=node_417594889.1.2.3.4 conn=wye Kv=0.2200 Kva=45.0 %R=0.760
New Transformer.326783022_327039682 phases=3 windings=2 Xhl=3.700
~ wdg=1 bus=node_430736118.1.2.3 conn=delta Kv=13.8 Kva=45.0 %R=0.760
~ wdg=2 bus=node_420019533.1.2.3.4 conn=wye Kv=0.2200 Kva=45.0 %R=0.760
New Transformer.326783126_327057613 phases=3 windings=2 Xhl=3.700
~ wdg=1 bus=node_425294464.1.2.3 conn=delta Kv=13.8 Kva=45.0 %R=0.760
~ wdg=2 bus=node_418470057.1.2.3.4 conn=wye Kv=0.2200 Kva=45.0 %R=0.760
New Transformer.326782991_327040692 phases=3 windings=2 Xhl=3.700
~ wdg=1 bus=node_429003197.1.2.3 conn=delta Kv=13.8 Kva=45.0 %R=0.760
~ wdg=2 bus=node_419869700.1.2.3.4 conn=wye Kv=0.2200 Kva=45.0 %R=0.760
New Transformer.326784407_327077859 phases=3 windings=2 Xhl=3.700
~ wdg=1 bus=node_428685154.1.2.3 conn=delta Kv=13.8 Kva=45.0 %R=0.760
~ wdg=2 bus=node_418024929.1.2.3.4 conn=wye Kv=0.2200 Kva=45.0 %R=0.760
New Transformer.326783560_327074969 phases=3 windings=2 Xhl=3.700
~ wdg=1 bus=node_425478439.1.2.3 conn=delta Kv=13.8 Kva=45.0 %R=0.760
~ wdg=2 bus=node_410912025.1.2.3.4 conn=wye Kv=0.2200 Kva=45.0 %R=0.760
New Transformer.326783550_327058005 phases=3 windings=2 Xhl=3.700
~ wdg=1 bus=node_428685459.1.2.3 conn=delta Kv=13.8 Kva=45.0 %R=0.760
~ wdg=2 bus=node_418448373.1.2.3.4 conn=wye Kv=0.2200 Kva=45.0 %R=0.760
New Transformer.326783384_327078130 phases=3 windings=2 Xhl=3.700
~ wdg=1 bus=node_437538053.1.2.3 conn=delta Kv=13.8 Kva=45.0 %R=0.760
~ wdg=2 bus=node_418528884.1.2.3.4 conn=wye Kv=0.2200 Kva=45.0 %R=0.760
New Transformer.326783426_327042754 phases=3 windings=2 Xhl=3.700
~ wdg=1 bus=node_425476793.1.2.3 conn=delta Kv=13.8 Kva=45.0 %R=0.760
~ wdg=2 bus=node_418019637.1.2.3.4 conn=wye Kv=0.2200 Kva=45.0 %R=0.760
New Transformer.326783611_327060377 phases=3 windings=2 Xhl=3.700
~ wdg=1 bus=node_425293042.1.2.3 conn=delta Kv=13.8 Kva=45.0 %R=0.760
~ wdg=2 bus=node_418500489.1.2.3.4 conn=wye Kv=0.2200 Kva=45.0 %R=0.760
New Transformer.326784651_327095755 phases=3 windings=2 Xhl=3.700
~ wdg=1 bus=node_425476889.1.2.3 conn=delta Kv=13.8 Kva=45.0 %R=0.760
~ wdg=2 bus=node_420911015.1.2.3.4 conn=wye Kv=0.2200 Kva=45.0 %R=0.760
New Transformer.326784657_327074773 phases=3 windings=2 Xhl=3.700
~ wdg=1 bus=node_428684990.1.2.3 conn=delta Kv=13.8 Kva=45.0 %R=0.760
~ wdg=2 bus=node_418021287.1.2.3.4 conn=wye Kv=0.2200 Kva=45.0 %R=0.760
New Transformer.326785005_327097520 phases=3 windings=2 Xhl=3.700
~ wdg=1 bus=node_425479209.1.2.3 conn=delta Kv=13.8 Kva=45.0 %R=0.760
~ wdg=2 bus=node_418619235.1.2.3.4 conn=wye Kv=0.2200 Kva=45.0 %R=0.760
New Transformer.326784798_327056890 phases=3 windings=2 Xhl=3.700
~ wdg=1 bus=node_428685245.1.2.3 conn=delta Kv=13.8 Kva=45.0 %R=0.760
~ wdg=2 bus=node_418561224.1.2.3.4 conn=wye Kv=0.2200 Kva=45.0 %R=0.760
New Transformer.326784791_327097640 phases=3 windings=2 Xhl=3.700
~ wdg=1 bus=node_429002878.1.2.3 conn=delta Kv=13.8 Kva=45.0 %R=0.760
~ wdg=2 bus=node_418498671.1.2.3.4 conn=wye Kv=0.2200 Kva=45.0 %R=0.760
New Transformer.326784868_327060540 phases=3 windings=2 Xhl=3.700
~ wdg=1 bus=node_437373366.1.2.3 conn=delta Kv=13.8 Kva=45.0 %R=0.760
~ wdg=2 bus=node_418020048.1.2.3.4 conn=wye Kv=0.2200 Kva=45.0 %R=0.760
New Transformer.326783190_327056925 phases=3 windings=2 Xhl=3.700
~ wdg=1 bus=node_429002798.1.2.3 conn=delta Kv=13.8 Kva=45.0 %R=0.760
~ wdg=2 bus=node_418017549.1.2.3.4 conn=wye Kv=0.2200 Kva=45.0 %R=0.760
New Transformer.326785165_327097644 phases=3 windings=2 Xhl=3.700
~ wdg=1 bus=node_437369681.1.2.3 conn=delta Kv=13.8 Kva=45.0 %R=0.760
~ wdg=2 bus=node_418500426.1.2.3.4 conn=wye Kv=0.2200 Kva=45.0 %R=0.760
New Transformer.326785578_326854610 phases=3 windings=2 Xhl=3.700
~ wdg=1 bus=node_428685110.1.2.3 conn=delta Kv=13.8 Kva=45.0 %R=0.760
~ wdg=2 bus=node_418026642.1.2.3.4 conn=wye Kv=0.2200 Kva=45.0 %R=0.760
New Transformer.326785603_327078129 phases=3 windings=2 Xhl=3.700
~ wdg=1 bus=node_437372996.1.2.3 conn=delta Kv=13.8 Kva=45.0 %R=0.760
~ wdg=2 bus=node_418019652.1.2.3.4 conn=wye Kv=0.2200 Kva=45.0 %R=0.760
New Transformer.326785910_327056901 phases=3 windings=2 Xhl=3.700
~ wdg=1 bus=node_429002808.1.2.3 conn=delta Kv=13.8 Kva=45.0 %R=0.760
~ wdg=2 bus=node_418528899.1.2.3.4 conn=wye Kv=0.2200 Kva=45.0 %R=0.760
New Transformer.326786050_327057160 phases=3 windings=2 Xhl=3.700
~ wdg=1 bus=node_437539688.1.2.3 conn=delta Kv=13.8 Kva=45.0 %R=0.760
~ wdg=2 bus=node_418648245.1.2.3.4 conn=wye Kv=0.2200 Kva=45.0 %R=0.760
New Transformer.326785374_1359536260 phases=3 windings=2 Xhl=3.700
~ wdg=1 bus=node_438339679.1.2.3 conn=delta Kv=13.8 Kva=45.0 %R=0.760
~ wdg=2 bus=node_410911437.1.2.3.4 conn=wye Kv=0.2200 Kva=45.0 %R=0.760
New Transformer.326785658_326854843 phases=3 windings=2 Xhl=3.700
~ wdg=1 bus=node_425478669.1.2.3 conn=delta Kv=13.8 Kva=45.0 %R=0.760
~ wdg=2 bus=node_410912184.1.2.3.4 conn=wye Kv=0.2200 Kva=45.0 %R=0.760
New Transformer.326850915_327060373 phases=3 windings=2 Xhl=3.700
~ wdg=1 bus=node_425294589.1.2.3 conn=delta Kv=13.8 Kva=45.0 %R=0.760
~ wdg=2 bus=node_418019826.1.2.3.4 conn=wye Kv=0.2200 Kva=45.0 %R=0.760
New Transformer.326851417_327074768 phases=3 windings=2 Xhl=3.700
~ wdg=1 bus=node_1378332519.1.2.3 conn=delta Kv=13.8 Kva=45.0 %R=0.760
~ wdg=2 bus=node_418020636.1.2.3.4 conn=wye Kv=0.2200 Kva=45.0 %R=0.760
New Transformer.326851362_327060367 phases=3 windings=2 Xhl=3.700
~ wdg=1 bus=node_437372236.1.2.3 conn=delta Kv=13.8 Kva=45.0 %R=0.760
~ wdg=2 bus=node_418019634.1.2.3.4 conn=wye Kv=0.2200 Kva=45.0 %R=0.760
New Transformer.326850936_327042750 phases=3 windings=2 Xhl=3.700
~ wdg=1 bus=node_428684389.1.2.3 conn=delta Kv=13.8 Kva=45.0 %R=0.760
~ wdg=2 bus=node_418019625.1.2.3.4 conn=wye Kv=0.2200 Kva=45.0 %R=0.760
New Transformer.1109057323_1109057322 phases=3 windings=2 Xhl=3.700
~ wdg=1 bus=node_1443343717.1.2.3 conn=delta Kv=13.8 Kva=45.0 %R=0.760
~ wdg=2 bus=node_1378331354.1.2.3.4 conn=wye Kv=0.2200 Kva=45.0 %R=0.760
New Transformer.326850901_327060375 phases=3 windings=2 Xhl=3.700
~ wdg=1 bus=node_429002393.1.2.3 conn=delta Kv=13.8 Kva=45.0 %R=0.760
~ wdg=2 bus=node_418470048.1.2.3.4 conn=wye Kv=0.2200 Kva=45.0 %R=0.760
New Transformer.326785929_327057195 phases=3 windings=2 Xhl=3.700
~ wdg=1 bus=node_437540023.1.2.3 conn=delta Kv=13.8 Kva=45.0 %R=0.760
~ wdg=2 bus=node_418016688.1.2.3.4 conn=wye Kv=0.2200 Kva=45.0 %R=0.760
New Transformer.326785449_327097606 phases=3 windings=2 Xhl=3.700
~ wdg=1 bus=node_437538088.1.2.3 conn=delta Kv=13.8 Kva=45.0 %R=0.760
~ wdg=2 bus=node_418501593.1.2.3.4 conn=wye Kv=0.2200 Kva=45.0 %R=0.760
New Transformer.326851541_327060370 phases=3 windings=2 Xhl=3.700
~ wdg=1 bus=node_428684835.1.2.3 conn=delta Kv=13.8 Kva=45.0 %R=0.760
~ wdg=2 bus=node_418021380.1.2.3.4 conn=wye Kv=0.2200 Kva=45.0 %R=0.760
New Transformer.326851751_1642334768 phases=3 windings=2 Xhl=3.700
~ wdg=1 bus=node_437539183.1.2.3 conn=delta Kv=13.8 Kva=45.0 %R=0.760
~ wdg=2 bus=node_418025343.1.2.3.4 conn=wye Kv=0.2200 Kva=45.0 %R=0.760
New Transformer.326786094_326854831 phases=3 windings=2 Xhl=3.700
~ wdg=1 bus=node_425292513.1.2.3 conn=delta Kv=13.8 Kva=45.0 %R=0.760
~ wdg=2 bus=node_418500567.1.2.3.4 conn=wye Kv=0.2200 Kva=45.0 %R=0.760
New Transformer.326851201_326854847 phases=3 windings=2 Xhl=3.700
~ wdg=1 bus=node_425625583.1.2.3 conn=delta Kv=13.8 Kva=45.0 %R=0.760
~ wdg=2 bus=node_417595006.1.2.3.4 conn=wye Kv=0.2200 Kva=45.0 %R=0.760
New Transformer.326851168_327097888 phases=3 windings=2 Xhl=3.700
~ wdg=1 bus=node_429172556.1.2.3 conn=delta Kv=13.8 Kva=45.0 %R=0.760
~ wdg=2 bus=node_412381019.1.2.3.4 conn=wye Kv=0.2200 Kva=45.0 %R=0.760
New Transformer.326851478_327041309 phases=3 windings=2 Xhl=3.700
~ wdg=1 bus=node_428684994.1.2.3 conn=delta Kv=13.8 Kva=45.0 %R=0.760
~ wdg=2 bus=node_418357753.1.2.3.4 conn=wye Kv=0.2200 Kva=45.0 %R=0.760
New Transformer.326851738_327078151 phases=3 windings=2 Xhl=3.700
~ wdg=1 bus=node_437035022.1.2.3 conn=delta Kv=13.8 Kva=45.0 %R=0.760
~ wdg=2 bus=node_417593764.1.2.3.4 conn=wye Kv=0.2200 Kva=45.0 %R=0.760
New Transformer.326852240_327078246 phases=3 windings=2 Xhl=3.700
~ wdg=1 bus=node_425293013.1.2.3 conn=delta Kv=13.8 Kva=45.0 %R=0.760
~ wdg=2 bus=node_420955532.1.2.3.4 conn=wye Kv=0.2200 Kva=45.0 %R=0.760
New Transformer.326853283_326854641 phases=3 windings=2 Xhl=3.700
~ wdg=1 bus=node_437693933.1.2.3 conn=delta Kv=13.8 Kva=45.0 %R=0.760
~ wdg=2 bus=node_417048066.1.2.3.4 conn=wye Kv=0.2200 Kva=45.0 %R=0.760
New Transformer.326853274_327074673 phases=3 windings=2 Xhl=3.700
~ wdg=1 bus=node_437371156.1.2.3 conn=delta Kv=13.8 Kva=45.0 %R=0.760
~ wdg=2 bus=node_417595402.1.2.3.4 conn=wye Kv=0.2200 Kva=45.0 %R=0.760
New Transformer.841847343_841847342 phases=3 windings=2 Xhl=3.700
~ wdg=1 bus=node_1111089731.1.2.3 conn=delta Kv=13.8 Kva=45.0 %R=0.760
~ wdg=2 bus=node_1111089703.1.2.3.4 conn=wye Kv=0.2200 Kva=45.0 %R=0.760
New Transformer.326852483_327042734 phases=3 windings=2 Xhl=3.700
~ wdg=1 bus=node_425293591.1.2.3 conn=delta Kv=13.8 Kva=45.0 %R=0.760
~ wdg=2 bus=node_418500132.1.2.3.4 conn=wye Kv=0.2200 Kva=45.0 %R=0.760
New Transformer.326852449_327077936 phases=3 windings=2 Xhl=3.700
~ wdg=1 bus=node_437539298.1.2.3 conn=delta Kv=13.8 Kva=45.0 %R=0.760
~ wdg=2 bus=node_418025037.1.2.3.4 conn=wye Kv=0.2200 Kva=45.0 %R=0.760
New Transformer.331240248_331729758 phases=3 windings=2 Xhl=3.700
~ wdg=1 bus=node_424844641.1.2.3 conn=delta Kv=13.8 Kva=45.0 %R=0.760
~ wdg=2 bus=node_410912205.1.2.3.4 conn=wye Kv=0.2200 Kva=45.0 %R=0.760
New Transformer.326853181_1464035017 phases=3 windings=2 Xhl=3.700
~ wdg=1 bus=node_429003042.1.2.3 conn=delta Kv=13.8 Kva=45.0 %R=0.760
~ wdg=2 bus=node_416283258.1.2.3.4 conn=wye Kv=0.2200 Kva=45.0 %R=0.760
New Transformer.326853356_327117029 phases=3 windings=2 Xhl=3.700
~ wdg=1 bus=node_437372966.1.2.3 conn=delta Kv=13.8 Kva=45.0 %R=0.760
~ wdg=2 bus=node_418020627.1.2.3.4 conn=wye Kv=0.2200 Kva=45.0 %R=0.760
New Transformer.326853372_1762472300 phases=3 windings=2 Xhl=3.700
~ wdg=1 bus=node_425292413.1.2.3 conn=delta Kv=13.8 Kva=45.0 %R=0.760
~ wdg=2 bus=node_418021284.1.2.3.4 conn=wye Kv=0.2200 Kva=45.0 %R=0.760
New Transformer.722384026_722384028 phases=3 windings=2 Xhl=3.700
~ wdg=1 bus=node_996132003.1.2.3 conn=delta Kv=13.8 Kva=45.0 %R=0.760
~ wdg=2 bus=node_996130859.1.2.3.4 conn=wye Kv=0.2200 Kva=45.0 %R=0.760
New Transformer.722384444_722384446 phases=3 windings=2 Xhl=3.700
~ wdg=1 bus=node_996131357.1.2.3 conn=delta Kv=13.8 Kva=45.0 %R=0.760
~ wdg=2 bus=node_996131368.1.2.3.4 conn=wye Kv=0.2200 Kva=45.0 %R=0.760
New Transformer.331242150_331724087 phases=3 windings=2 Xhl=3.700
~ wdg=1 bus=node_424846106.1.2.3 conn=delta Kv=13.8 Kva=45.0 %R=0.760
~ wdg=2 bus=node_410911461.1.2.3.4 conn=wye Kv=0.2200 Kva=45.0 %R=0.760
New Transformer.331241760_331763626 phases=3 windings=2 Xhl=3.700
~ wdg=1 bus=node_424947263.1.2.3 conn=delta Kv=13.8 Kva=45.0 %R=0.760
~ wdg=2 bus=node_411769887.1.2.3.4 conn=wye Kv=0.2200 Kva=45.0 %R=0.760
New Transformer.765130761_765130760 phases=3 windings=2 Xhl=3.700
~ wdg=1 bus=node_429003537.1.2.3 conn=delta Kv=13.8 Kva=45.0 %R=0.760
~ wdg=2 bus=node_420052792.1.2.3.4 conn=wye Kv=0.2200 Kva=45.0 %R=0.760
New Transformer.1614746003_1614746002 phases=3 windings=2 Xhl=3.700
~ wdg=1 bus=node_1935371119.1.2.3 conn=delta Kv=13.8 Kva=45.0 %R=0.760
~ wdg=2 bus=node_1935371131.1.2.3.4 conn=wye Kv=0.2200 Kva=45.0 %R=0.760
New Transformer.1614746015_1614746014 phases=3 windings=2 Xhl=3.700
~ wdg=1 bus=node_1935370940.1.2.3 conn=delta Kv=13.8 Kva=45.0 %R=0.760
~ wdg=2 bus=node_1935370592.1.2.3.4 conn=wye Kv=0.2200 Kva=45.0 %R=0.760
New Transformer.1614746318_1614746317 phases=3 windings=2 Xhl=3.700
~ wdg=1 bus=node_1935512053.1.2.3 conn=delta Kv=13.8 Kva=45.0 %R=0.760
~ wdg=2 bus=node_1935512093.1.2.3.4 conn=wye Kv=0.2200 Kva=45.0 %R=0.760
New Transformer.1627520782_1627520781 phases=3 windings=2 Xhl=3.700
~ wdg=1 bus=node_425294528.1.2.3 conn=delta Kv=13.8 Kva=45.0 %R=0.760
~ wdg=2 bus=node_464841145.1.2.3.4 conn=wye Kv=0.2200 Kva=45.0 %R=0.760
New Transformer.946522873_946522872 phases=3 windings=2 Xhl=3.700
~ wdg=1 bus=node_1208723576.1.2.3 conn=delta Kv=13.8 Kva=45.0 %R=0.760
~ wdg=2 bus=node_1208722475.1.2.3.4 conn=wye Kv=0.2200 Kva=45.0 %R=0.760
New Transformer.946522912_946522911 phases=3 windings=2 Xhl=3.700
~ wdg=1 bus=node_1208723646.1.2.3 conn=delta Kv=13.8 Kva=45.0 %R=0.760
~ wdg=2 bus=node_1208722682.1.2.3.4 conn=wye Kv=0.2200 Kva=45.0 %R=0.760
New Transformer.1436528527_1436528526 phases=3 windings=2 Xhl=3.700
~ wdg=1 bus=node_1732835618.1.2.3 conn=delta Kv=13.8 Kva=45.0 %R=0.760
~ wdg=2 bus=node_1732836065.1.2.3.4 conn=wye Kv=0.2200 Kva=45.0 %R=0.760
New Transformer.1436528586_1436528585 phases=3 windings=2 Xhl=3.700
~ wdg=1 bus=node_1732835705.1.2.3 conn=delta Kv=13.8 Kva=45.0 %R=0.760
~ wdg=2 bus=node_1732836222.1.2.3.4 conn=wye Kv=0.2200 Kva=45.0 %R=0.760
New Transformer.1336967106_1336967105 phases=3 windings=2 Xhl=3.700
~ wdg=1 bus=node_1632377126.1.2.3 conn=delta Kv=13.8 Kva=45.0 %R=0.760
~ wdg=2 bus=node_1632377111.1.2.3.4 conn=wye Kv=0.2200 Kva=45.0 %R=0.760
New Transformer.1910980379_1910980378 phases=3 windings=2 Xhl=3.700
~ wdg=1 bus=node_2298174592.1.2.3 conn=delta Kv=13.8 Kva=45.0 %R=0.760
~ wdg=2 bus=node_2298174631.1.2.3.4 conn=wye Kv=0.2200 Kva=45.0 %R=0.760
New Transformer.966004491_966004490 phases=3 windings=2 Xhl=3.700
~ wdg=1 bus=node_1227969315.1.2.3 conn=delta Kv=13.8 Kva=45.0 %R=0.760
~ wdg=2 bus=node_1227969437.1.2.3.4 conn=wye Kv=0.2200 Kva=45.0 %R=0.760
New Transformer.966004546_966004555 phases=3 windings=2 Xhl=3.700
~ wdg=1 bus=node_1227969269.1.2.3 conn=delta Kv=13.8 Kva=45.0 %R=0.760
~ wdg=2 bus=node_1378331529.1.2.3.4 conn=wye Kv=0.2200 Kva=45.0 %R=0.760
New Transformer.966004566_966004579 phases=3 windings=2 Xhl=3.700
~ wdg=1 bus=node_1227969246.1.2.3 conn=delta Kv=13.8 Kva=45.0 %R=0.760
~ wdg=2 bus=node_1378331576.1.2.3.4 conn=wye Kv=0.2200 Kva=45.0 %R=0.760
New Transformer.966004583_966004591 phases=3 windings=2 Xhl=3.700
~ wdg=1 bus=node_1227969290.1.2.3 conn=delta Kv=13.8 Kva=45.0 %R=0.760
~ wdg=2 bus=node_1378331586.1.2.3.4 conn=wye Kv=0.2200 Kva=45.0 %R=0.760
New Transformer.966004736_966004749 phases=3 windings=2 Xhl=3.700
~ wdg=1 bus=node_1227969065.1.2.3 conn=delta Kv=13.8 Kva=45.0 %R=0.760
~ wdg=2 bus=node_1378331494.1.2.3.4 conn=wye Kv=0.2200 Kva=45.0 %R=0.760
New Transformer.966004977_966004989 phases=3 windings=2 Xhl=3.700
~ wdg=1 bus=node_1227970031.1.2.3 conn=delta Kv=13.8 Kva=45.0 %R=0.760
~ wdg=2 bus=node_1227970061.1.2.3.4 conn=wye Kv=0.2200 Kva=45.0 %R=0.760
New Transformer.1692497436_1692497435 phases=3 windings=2 Xhl=3.700
~ wdg=1 bus=node_2018330501.1.2.3 conn=delta Kv=13.8 Kva=45.0 %R=0.760
~ wdg=2 bus=node_465042475.1.2.3.4 conn=wye Kv=0.2200 Kva=45.0 %R=0.760
New Transformer.1359583535_1359583534 phases=3 windings=2 Xhl=3.700
~ wdg=1 bus=node_1654117601.1.2.3 conn=delta Kv=13.8 Kva=45.0 %R=0.760
~ wdg=2 bus=node_465254687.1.2.3.4 conn=wye Kv=0.2200 Kva=45.0 %R=0.760
New Transformer.331364114_331763647 phases=3 windings=2 Xhl=3.700
~ wdg=1 bus=node_424845260.1.2.3 conn=delta Kv=13.8 Kva=45.0 %R=0.760
~ wdg=2 bus=node_410913576.1.2.3.4 conn=wye Kv=0.2200 Kva=45.0 %R=0.760
New Transformer.510999372_510999373 phases=3 windings=2 Xhl=3.700
~ wdg=1 bus=node_781139357.1.2.3 conn=delta Kv=13.8 Kva=45.0 %R=0.760
~ wdg=2 bus=node_781139111.1.2.3.4 conn=wye Kv=0.2200 Kva=45.0 %R=0.760
New Transformer.510999382_510999384 phases=3 windings=2 Xhl=3.700
~ wdg=1 bus=node_781139386.1.2.3 conn=delta Kv=13.8 Kva=45.0 %R=0.760
~ wdg=2 bus=node_781139005.1.2.3.4 conn=wye Kv=0.2200 Kva=45.0 %R=0.760
New Transformer.326584596_2675235412 phases=3 windings=2 Xhl=3.700
~ wdg=1 bus=node_437370366.1.2.3 conn=delta Kv=13.8 Kva=45.0 %R=0.760
~ wdg=2 bus=node_417594952.1.2.3.4 conn=wye Kv=0.2200 Kva=45.0 %R=0.760
New Transformer.326584827_327057349 phases=3 windings=2 Xhl=3.700
~ wdg=1 bus=node_425293362.1.2.3 conn=delta Kv=13.8 Kva=45.0 %R=0.760
~ wdg=2 bus=node_418501491.1.2.3.4 conn=wye Kv=0.2200 Kva=45.0 %R=0.760
New Transformer.326584965_327039768 phases=3 windings=2 Xhl=3.700
~ wdg=1 bus=node_442530081.1.2.3 conn=delta Kv=13.8 Kva=45.0 %R=0.760
~ wdg=2 bus=node_419905605.1.2.3.4 conn=wye Kv=0.2200 Kva=45.0 %R=0.760
New Transformer.326584644_327057722 phases=3 windings=2 Xhl=3.700
~ wdg=1 bus=node_430409859.1.2.3 conn=delta Kv=13.8 Kva=45.0 %R=0.760
~ wdg=2 bus=node_419094912.1.2.3.4 conn=wye Kv=0.2200 Kva=45.0 %R=0.760
New Transformer.326584857_327057390 phases=3 windings=2 Xhl=3.700
~ wdg=1 bus=node_434739557.1.2.3 conn=delta Kv=13.8 Kva=45.0 %R=0.760
~ wdg=2 bus=node_418019802.1.2.3.4 conn=wye Kv=0.2200 Kva=45.0 %R=0.760
New Transformer.326584493_1658106783 phases=3 windings=2 Xhl=3.700
~ wdg=1 bus=node_425479044.1.2.3 conn=delta Kv=13.8 Kva=45.0 %R=0.760
~ wdg=2 bus=node_410911998.1.2.3.4 conn=wye Kv=0.2200 Kva=45.0 %R=0.760
New Transformer.326091551_949935880 phases=3 windings=2 Xhl=3.700
~ wdg=1 bus=node_437540323.1.2.3 conn=delta Kv=13.8 Kva=45.0 %R=0.760
~ wdg=2 bus=node_418501497.1.2.3.4 conn=wye Kv=0.2200 Kva=45.0 %R=0.760
New Transformer.326584506_2563560947 phases=3 windings=2 Xhl=3.700
~ wdg=1 bus=node_434739582.1.2.3 conn=delta Kv=13.8 Kva=45.0 %R=0.760
~ wdg=2 bus=node_418017759.1.2.3.4 conn=wye Kv=0.2200 Kva=45.0 %R=0.760
New Transformer.1503638985_1503638986 phases=3 windings=2 Xhl=3.700
~ wdg=1 bus=node_1808018927.1.2.3 conn=delta Kv=13.8 Kva=45.0 %R=0.760
~ wdg=2 bus=node_1808019003.1.2.3.4 conn=wye Kv=0.2200 Kva=45.0 %R=0.760
New Transformer.1503639047_1503639048 phases=3 windings=2 Xhl=3.700
~ wdg=1 bus=node_1808019472.1.2.3 conn=delta Kv=13.8 Kva=45.0 %R=0.760
~ wdg=2 bus=node_1808019183.1.2.3.4 conn=wye Kv=0.2200 Kva=45.0 %R=0.760
New Transformer.1503639187_1503639188 phases=3 windings=2 Xhl=3.700
~ wdg=1 bus=node_1808018993.1.2.3 conn=delta Kv=13.8 Kva=45.0 %R=0.760
~ wdg=2 bus=node_1808019301.1.2.3.4 conn=wye Kv=0.2200 Kva=45.0 %R=0.760
New Transformer.331365620_331764684 phases=3 windings=2 Xhl=3.700
~ wdg=1 bus=node_424845166.1.2.3 conn=delta Kv=13.8 Kva=45.0 %R=0.760
~ wdg=2 bus=node_412327486.1.2.3.4 conn=wye Kv=0.2200 Kva=45.0 %R=0.760
New Transformer.326091665_327078064 phases=3 windings=2 Xhl=3.700
~ wdg=1 bus=node_425626084.1.2.3 conn=delta Kv=13.8 Kva=45.0 %R=0.760
~ wdg=2 bus=node_410912199.1.2.3.4 conn=wye Kv=0.2200 Kva=45.0 %R=0.760
New Transformer.326585544_405117635 phases=3 windings=2 Xhl=3.700
~ wdg=1 bus=node_425479353.1.2.3 conn=delta Kv=13.8 Kva=45.0 %R=0.760
~ wdg=2 bus=node_418499016.1.2.3.4 conn=wye Kv=0.2200 Kva=45.0 %R=0.760
New Transformer.326091896_327057201 phases=3 windings=2 Xhl=3.700
~ wdg=1 bus=node_438503765.1.2.3 conn=delta Kv=13.8 Kva=45.0 %R=0.760
~ wdg=2 bus=node_410911737.1.2.3.4 conn=wye Kv=0.2200 Kva=45.0 %R=0.760
New Transformer.326585151_327042580 phases=3 windings=2 Xhl=3.700
~ wdg=1 bus=node_425479094.1.2.3 conn=delta Kv=13.8 Kva=45.0 %R=0.760
~ wdg=2 bus=node_418621068.1.2.3.4 conn=wye Kv=0.2200 Kva=45.0 %R=0.760
New Transformer.326091756_326854841 phases=3 windings=2 Xhl=3.700
~ wdg=1 bus=node_442529437.1.2.3 conn=delta Kv=13.8 Kva=45.0 %R=0.760
~ wdg=2 bus=node_418019592.1.2.3.4 conn=wye Kv=0.2200 Kva=45.0 %R=0.760
New Transformer.326091689_327074613 phases=3 windings=2 Xhl=3.700
~ wdg=1 bus=node_437036142.1.2.3 conn=delta Kv=13.8 Kva=45.0 %R=0.760
~ wdg=2 bus=node_422716638.1.2.3.4 conn=wye Kv=0.2200 Kva=45.0 %R=0.760
New Transformer.326584796_565408192 phases=3 windings=2 Xhl=3.700
~ wdg=1 bus=node_425475627.1.2.3 conn=delta Kv=13.8 Kva=45.0 %R=0.760
~ wdg=2 bus=node_419870588.1.2.3.4 conn=wye Kv=0.2200 Kva=45.0 %R=0.760
New Transformer.326585129_327057091 phases=3 windings=2 Xhl=3.700
~ wdg=1 bus=node_438336644.1.2.3 conn=delta Kv=13.8 Kva=45.0 %R=0.760
~ wdg=2 bus=node_417047505.1.2.3.4 conn=wye Kv=0.2200 Kva=45.0 %R=0.760
New Transformer.326586011_327075904 phases=3 windings=2 Xhl=3.700
~ wdg=1 bus=node_425292808.1.2.3 conn=delta Kv=13.8 Kva=45.0 %R=0.760
~ wdg=2 bus=node_999634741.1.2.3.4 conn=wye Kv=0.2200 Kva=45.0 %R=0.760
New Transformer.326586024_327097626 phases=3 windings=2 Xhl=3.700
~ wdg=1 bus=node_438013724.1.2.3 conn=delta Kv=13.8 Kva=45.0 %R=0.760
~ wdg=2 bus=node_410912226.1.2.3.4 conn=wye Kv=0.2200 Kva=45.0 %R=0.760
New Transformer.326585856_528157708 phases=3 windings=2 Xhl=3.700
~ wdg=1 bus=node_425475632.1.2.3 conn=delta Kv=13.8 Kva=45.0 %R=0.760
~ wdg=2 bus=node_418031430.1.2.3.4 conn=wye Kv=0.2200 Kva=45.0 %R=0.760
New Transformer.326585832_326854839 phases=3 windings=2 Xhl=3.700
~ wdg=1 bus=node_425293138.1.2.3 conn=delta Kv=13.8 Kva=45.0 %R=0.760
~ wdg=2 bus=node_418021362.1.2.3.4 conn=wye Kv=0.2200 Kva=45.0 %R=0.760
New Transformer.326585836_327060511 phases=3 windings=2 Xhl=3.700
~ wdg=1 bus=node_438337604.1.2.3 conn=delta Kv=13.8 Kva=45.0 %R=0.760
~ wdg=2 bus=node_418469535.1.2.3.4 conn=wye Kv=0.2200 Kva=45.0 %R=0.760
New Transformer.326585904_327042737 phases=3 windings=2 Xhl=3.700
~ wdg=1 bus=node_429003061.1.2.3 conn=delta Kv=13.8 Kva=45.0 %R=0.760
~ wdg=2 bus=node_418498674.1.2.3.4 conn=wye Kv=0.2200 Kva=45.0 %R=0.760
New Transformer.331366723_331731552 phases=3 windings=2 Xhl=3.700
~ wdg=1 bus=node_424845965.1.2.3 conn=delta Kv=13.8 Kva=45.0 %R=0.760
~ wdg=2 bus=node_410912004.1.2.3.4 conn=wye Kv=0.2200 Kva=45.0 %R=0.760
New Transformer.326585812_327075954 phases=3 windings=2 Xhl=3.700
~ wdg=1 bus=node_429002303.1.2.3 conn=delta Kv=13.8 Kva=45.0 %R=0.760
~ wdg=2 bus=node_420927793.1.2.3.4 conn=wye Kv=0.2200 Kva=45.0 %R=0.760
New Transformer.331572125_1280058583 phases=3 windings=2 Xhl=3.700
~ wdg=1 bus=node_424844445.1.2.3 conn=delta Kv=13.8 Kva=45.0 %R=0.760
~ wdg=2 bus=node_410911482.1.2.3.4 conn=wye Kv=0.2200 Kva=45.0 %R=0.760
New Transformer.326586690_327077836 phases=3 windings=2 Xhl=3.700
~ wdg=1 bus=node_437035417.1.2.3 conn=delta Kv=13.8 Kva=45.0 %R=0.760
~ wdg=2 bus=node_418558155.1.2.3.4 conn=wye Kv=0.2200 Kva=45.0 %R=0.760
New Transformer.331572185_331763167 phases=3 windings=2 Xhl=3.700
~ wdg=1 bus=node_424846155.1.2.3 conn=delta Kv=13.8 Kva=45.0 %R=0.760
~ wdg=2 bus=node_410912001.1.2.3.4 conn=wye Kv=0.2200 Kva=45.0 %R=0.760
New Transformer.326586365_327060181 phases=3 windings=2 Xhl=3.700
~ wdg=1 bus=node_438506521.1.2.3 conn=delta Kv=13.8 Kva=45.0 %R=0.760
~ wdg=2 bus=node_418023525.1.2.3.4 conn=wye Kv=0.2200 Kva=45.0 %R=0.760
New Transformer.326586313_533778554 phases=3 windings=2 Xhl=3.700
~ wdg=1 bus=node_429003072.1.2.3 conn=delta Kv=13.8 Kva=45.0 %R=0.760
~ wdg=2 bus=node_418017591.1.2.3.4 conn=wye Kv=0.2200 Kva=45.0 %R=0.760
New Transformer.326586044_327117107 phases=3 windings=2 Xhl=3.700
~ wdg=1 bus=node_437539223.1.2.3 conn=delta Kv=13.8 Kva=45.0 %R=0.760
~ wdg=2 bus=node_418018239.1.2.3.4 conn=wye Kv=0.2200 Kva=45.0 %R=0.760
New Transformer.326586553_327095501 phases=3 windings=2 Xhl=3.700
~ wdg=1 bus=node_425293003.1.2.3 conn=delta Kv=13.8 Kva=45.0 %R=0.760
~ wdg=2 bus=node_420948730.1.2.3.4 conn=wye Kv=0.2200 Kva=45.0 %R=0.760
New Transformer.326586559_1554711927 phases=3 windings=2 Xhl=3.700
~ wdg=1 bus=node_429002892.1.2.3 conn=delta Kv=13.8 Kva=45.0 %R=0.760
~ wdg=2 bus=node_418500411.1.2.3.4 conn=wye Kv=0.2200 Kva=45.0 %R=0.760
New Transformer.326586557_327097630 phases=3 windings=2 Xhl=3.700
~ wdg=1 bus=node_429002142.1.2.3 conn=delta Kv=13.8 Kva=45.0 %R=0.760
~ wdg=2 bus=node_418021293.1.2.3.4 conn=wye Kv=0.2200 Kva=45.0 %R=0.760
New Transformer.326587902_327060188 phases=3 windings=2 Xhl=3.700
~ wdg=1 bus=node_425475442.1.2.3 conn=delta Kv=13.8 Kva=45.0 %R=0.760
~ wdg=2 bus=node_418022550.1.2.3.4 conn=wye Kv=0.2200 Kva=45.0 %R=0.760
New Transformer.331471418_331573195 phases=3 windings=2 Xhl=3.700
~ wdg=1 bus=node_438394810.1.2.3 conn=delta Kv=13.8 Kva=45.0 %R=0.760
~ wdg=2 bus=node_410914173.1.2.3.4 conn=wye Kv=0.2200 Kva=45.0 %R=0.760
New Transformer.1565798645_1565798644 phases=3 windings=2 Xhl=3.700
~ wdg=1 bus=node_1885310991.1.2.3 conn=delta Kv=13.8 Kva=45.0 %R=0.760
~ wdg=2 bus=node_1885311003.1.2.3.4 conn=wye Kv=0.2200 Kva=45.0 %R=0.760
New Transformer.326587531_326854917 phases=3 windings=2 Xhl=3.700
~ wdg=1 bus=node_429002533.1.2.3 conn=delta Kv=13.8 Kva=45.0 %R=0.760
~ wdg=2 bus=node_418500594.1.2.3.4 conn=wye Kv=0.2200 Kva=45.0 %R=0.760
New Transformer.326587380_326854594 phases=3 windings=2 Xhl=3.700
~ wdg=1 bus=node_438174696.1.2.3 conn=delta Kv=13.8 Kva=45.0 %R=0.760
~ wdg=2 bus=node_423072333.1.2.3.4 conn=wye Kv=0.2200 Kva=45.0 %R=0.760
New Transformer.326587557_327095942 phases=3 windings=2 Xhl=3.700
~ wdg=1 bus=node_437035357.1.2.3 conn=delta Kv=13.8 Kva=45.0 %R=0.760
~ wdg=2 bus=node_418987274.1.2.3.4 conn=wye Kv=0.2200 Kva=45.0 %R=0.760
New Transformer.326587216_1476740952 phases=3 windings=2 Xhl=3.700
~ wdg=1 bus=node_425294574.1.2.3 conn=delta Kv=13.8 Kva=45.0 %R=0.760
~ wdg=2 bus=node_418560555.1.2.3.4 conn=wye Kv=0.2200 Kva=45.0 %R=0.760
New Transformer.326587256_327097638 phases=3 windings=2 Xhl=3.700
~ wdg=1 bus=node_442530675.1.2.3 conn=delta Kv=13.8 Kva=45.0 %R=0.760
~ wdg=2 bus=node_418019622.1.2.3.4 conn=wye Kv=0.2200 Kva=45.0 %R=0.760
New Transformer.326587498_515331528 phases=3 windings=2 Xhl=3.700
~ wdg=1 bus=node_437215901.1.2.3 conn=delta Kv=13.8 Kva=45.0 %R=0.760
~ wdg=2 bus=node_422718054.1.2.3.4 conn=wye Kv=0.2200 Kva=45.0 %R=0.760
New Transformer.2066290409_2066290408 phases=3 windings=2 Xhl=3.700
~ wdg=1 bus=node_2379225200.1.2.3 conn=delta Kv=13.8 Kva=45.0 %R=0.760
~ wdg=2 bus=node_2379225162.1.2.3.4 conn=wye Kv=0.2200 Kva=45.0 %R=0.760
New Transformer.326587043_327042628 phases=3 windings=2 Xhl=3.700
~ wdg=1 bus=node_435069621.1.2.3 conn=delta Kv=13.8 Kva=45.0 %R=0.760
~ wdg=2 bus=node_418648236.1.2.3.4 conn=wye Kv=0.2200 Kva=45.0 %R=0.760
New Transformer.326586836_327074752 phases=3 windings=2 Xhl=3.700
~ wdg=1 bus=node_425294335.1.2.3 conn=delta Kv=13.8 Kva=45.0 %R=0.760
~ wdg=2 bus=node_417046701.1.2.3.4 conn=wye Kv=0.2200 Kva=45.0 %R=0.760
New Transformer.326588229_1475568690 phases=3 windings=2 Xhl=3.700
~ wdg=1 bus=node_425293676.1.2.3 conn=delta Kv=13.8 Kva=45.0 %R=0.760
~ wdg=2 bus=node_418021371.1.2.3.4 conn=wye Kv=0.2200 Kva=45.0 %R=0.760
New Transformer.326588288_327074518 phases=3 windings=2 Xhl=3.700
~ wdg=1 bus=node_428684585.1.2.3 conn=delta Kv=13.8 Kva=45.0 %R=0.760
~ wdg=2 bus=node_418022955.1.2.3.4 conn=wye Kv=0.2200 Kva=45.0 %R=0.760
New Transformer.326588195_327056931 phases=3 windings=2 Xhl=3.700
~ wdg=1 bus=node_428684935.1.2.3 conn=delta Kv=13.8 Kva=45.0 %R=0.760
~ wdg=2 bus=node_418020642.1.2.3.4 conn=wye Kv=0.2200 Kva=45.0 %R=0.760
New Transformer.2086824112_2086824111 phases=3 windings=2 Xhl=3.700
...